FoamFile
{
    version     2.0;
    format      ascii;
    class       dictionary;
    location    "constant";
    object      thermophysicalProperties;
}

activeSpecies
(
);

inactiveSpecies
(
    A
    B
);

inertSpecie A;

phaseMixing
{
    viscosity       mass;
    conductivity    mass;
    heatCapacity    mass;
}
