FoamFile
{
    version     2.0;
    format      ascii;
    class       dictionary;
    location    "constant";
    object      thermophysicalProperties;
}

activeSpecies
(
    Water
    VG
);

inactiveSpecies
(
    Air
);

inertSpecie Air;

phaseMixing
{
    viscosity       continuousPhase;
    conductivity    mass;
    heatCapacity    mass;
}

activityCoeff
{
    type            Zhang;
    firtSpecieName  Water;
    C1              -0.3049;
    C2              -0.8551;
}
