FoamFile
{
    version     2.0;
    format      ascii;
    class       dictionary;
    location    "constant";
    object      thermophysicalProperties;
}

activeSpecies
(
    Butanol
);

inactiveSpecies
(
    Helium
);

inertSpecie Helium;

phaseMixing
{
    viscosity       continuousPhase;
    conductivity    continuousPhase;
    heatCapacity    continuousPhase;
}
